sistemas/EXLF/EXLF_2Q2024_R2_C6_loadstd1_geolstd1/EXLF_2Q2024_R2_C6JPMOD1.LIS
CEPEL - CENTRO DE PESQUISAS DE ENERGIA ELETRICA - PROGRAMA DE ANALISE DE REDES - V11.07.02                                 PAG.  12

 ONS - 2Q2024 - AGOSTO - Máxima Diurna                                           
 RELATORIO DE CONVERGENCIA

 OPCOES ATIVADAS: QLIM VLIM CREM CTAP STEP BPSI NEWT RCVG RMON FILE CONT CELO STPO VLCR CPHS IANG

 X-----------X------X------X---------------X---------------X---------------X--X-----------------------------------------------------------X
    ITERACAO          FREQ.  ERRO MAX BARRA  ERRO MAX BARRA  ERRO MAX  CONV                                                                
  FC  P  Q  V  M.O.   (Hz)       MW    NUM.     Mvar   NUM.  TENSAO %  NUM. FM  BARRA(B), CIRCUITO(C) E CONVERSOR COM LIMITE VIOLADO       
 X--X--X--X--X------X------X---------X-----X---------X-----X---------X-----X--X-----------------------------------------------------------X

   1                          3000.00  8100   1118.89  8100
 ................................................................
   2                          3000.00  8100   1118.89  8100
 ................................................................




 CONVERGENCIA FINAL

 X-----------X------X------X---------------X---------------X---------------X
    ITERACAO          FREQ. ERRO MAX BARRA  ERRO MAX BARRA  ERRO MAX  CONV  
  FC  P  Q  V  M.O.   (Hz)      MW    NUM.     Mvar   NUM.  TENSAO %  NUM.  
 X--X--X--X--X------X------X---------X-----X---------X-----X---------X-----X

   2                             0.00  7055      0.00  7059
      0  0  0 1.0000 60.000      0.00  1107      0.00  6563     0.000     0
CEPEL - CENTRO DE PESQUISAS DE ENERGIA ELETRICA - PROGRAMA DE ANALISE DE REDES - V11.07.02                                 PAG.  13

 ONS - 2Q2024 - AGOSTO - Máxima Diurna                                           
 RELATORIO DE BARRAS CA DO SISTEMA * AREA   1 * RS - 525 kV                         

 X---------------------X-----------X---------------X---------------X---------------X---------------X---------------X---------------X---X
          BARRA            TENSAO        GERACAO     INJECAO EQUIV        CARGA          ELO CC          SHUNT           MOTOR
  NUM.      NOME     TP  MOD   ANG      MW    Mvar\     MW    Mvar      MW    Mvar      MW    Mvar    Mvar   EQUIV      MW    Mvar
                                            CE Mvar                                                 SHUNT L                         EST
 X-----X------------X--X-----X-----X-------X-------X-------X-------X-------X-------X-------X-------X-------X-------X-------X-------X---X

    970 CFGAR1-RS500  0 1.069   0.0     0.0     0.0     0.0     0.0     0.0     0.0     0.0     0.0     0.0     0.0     0.0     0.0 LIG
                                                0.0                                                   -94.7
    971 CFGAR2-RS500  0 1.069   0.0     0.0     0.0     0.0     0.0     0.0     0.0     0.0     0.0     0.0     0.0     0.0     0.0 LIG
                                                0.0                                                   -94.7
   1040 RINCON-RS500  2 1.072  -0.0     0.0  -165.8     0.0     0.0     0.0     0.0     0.0     0.0    45.9     0.0     0.0     0.0 LIG
CEPEL - CENTRO DE PESQUISAS DE ENERGIA ELETRICA - PROGRAMA DE ANALISE DE REDES - V11.07.02                                 PAG.  14

 ONS - 2Q2024 - AGOSTO - Máxima Diurna                                           
 RELATORIO DE BARRAS CA DO SISTEMA * AREA   2 * RS - 230 kV                         

 X---------------------X-----------X---------------X---------------X---------------X---------------X---------------X---------------X---X
          BARRA            TENSAO        GERACAO     INJECAO EQUIV        CARGA          ELO CC          SHUNT           MOTOR
  NUM.      NOME     TP  MOD   ANG      MW    Mvar\     MW    Mvar      MW    Mvar      MW    Mvar    Mvar   EQUIV      MW    Mvar
                                            CE Mvar                                                 SHUNT L                         EST
 X-----X------------X--X-----X-----X-------X-------X-------X-------X-------X-------X-------X-------X-------X-------X-------X-------X---X

    917 PFUNDOUHE001  1 0.981 -36.7    74.5   -10.8     0.0     0.0     0.0     0.0     0.0     0.0     0.0     0.0     0.0     0.0 LIG
    918 PFUNDOSIN001  1 0.966 -41.1     0.0   -23.0     0.0     0.0     4.5     2.2     0.0     0.0     0.0     0.0     0.0     0.0 LIG
    951 CHARQU-RS230  0 1.023 -48.4     0.0     0.0     0.0     0.0     0.0     0.0     0.0     0.0     0.0     0.0     0.0     0.0 LIG
    962 FARROU-RS230  0 1.013 -48.0     0.0     0.0     0.0     0.0     0.0     0.0     0.0     0.0     0.0     0.0     0.0     0.0 LIG
    963 MCLARO-RS230  0 1.008 -48.2     0.0     0.0     0.0     0.0     0.0     0.0     0.0     0.0     0.0     0.0     0.0     0.0 LIG
    964 CAXIAS-RS525  0 1.003 -44.8     0.0     0.0     0.0     0.0     0.0     0.0     0.0     0.0  -302.0     0.0     0.0     0.0 LIG
    965 CAXIAS-RS230  0 1.023 -46.5     0.0     0.0     0.0     0.0     0.0     0.0     0.0     0.0     0.0     0.0     0.0     0.0 LIG
    966 GUAIB3CER019  0 0.962 -46.5     0.0     0.0     0.0     0.0     0.0     0.0     0.0     0.0     0.0     0.0     0.0     0.0 LIG
                                              -89.7                                                     0.0
    972 GARAB1-RS525  0 0.998 -37.7     0.0     0.0     0.0     0.0     0.0     0.0     0.0     0.0     0.0     0.0     0.0     0.0 LIG
                                                0.0                                                  -226.8
    973 GARAB2-RS525  0 0.998 -37.7     0.0     0.0     0.0     0.0     0.0     0.0     0.0     0.0     0.0     0.0     0.0     0.0 LIG
                                                0.0                                                  -266.6
    974 GUAIB3-RS525  0 1.012 -46.5     0.0     0.0     0.0     0.0     0.0     0.0     0.0     0.0  -204.7     0.0     0.0     0.0 LIG
                                                0.0                                                  -818.7
    975 GUAIB3-RS230  0 1.021 -48.0     0.0     0.0     0.0     0.0     0.0     0.0     0.0     0.0     0.0     0.0     0.0     0.0 LIG
    976 GRAVAT-RS525  0 1.009 -46.6     0.0     0.0     0.0     0.0     0.0     0.0     0.0     0.0  -305.2     0.0     0.0     0.0 LIG
    979 NSRITA-RS525  0 1.008 -46.0     0.0     0.0     0.0     0.0     0.0     0.0     0.0     0.0     0.0     0.0     0.0     0.0 LIG
                                                0.0                                                  -457.2
    980 NSRITA-RS230  0 1.031 -47.6     0.0     0.0     0.0     0.0     0.0     0.0     0.0     0.0     0.0     0.0     0.0     0.0 LIG
    997 PAMPAS-RS525  0 1.029 -45.7     0.0     0.0     0.0     0.0     0.0     0.0     0.0     0.0     0.0     0.0     0.0     0.0 LIG
    998 PAMPASUTE000 -1 1.043 -45.7     0.0     0.0     0.0     0.0     0.0     0.0     0.0     0.0     0.0     0.0     0.0     0.0 LIG
   1036 CAPIVA-RS525  0 1.003 -46.8     0.0     0.0     0.0     0.0     0.0     0.0     0.0     0.0  -201.4     0.0     0.0     0.0 LIG
                                                0.0                                                  -100.7
   1037 CAPIVA-RS230  0 1.003 -47.2     0.0     0.0     0.0     0.0     0.0     0.0     0.0     0.0     0.0     0.0     0.0     0.0 LIG
   1041 PFUNDO-RS230  0 1.015 -40.9     0.0     0.0     0.0     0.0     0.0     0.0     0.0     0.0     0.0     0.0     0.0     0.0 LIG
   1043 CFRIVE-RS230  0 1.017 -44.3     0.0     0.0     0.0     0.0     0.0     0.0     0.0     0.0     0.0     0.0     0.0     0.0 LIG
   1044 RIVERA-RS015  0 1.002 -44.3     0.0     0.0     0.0     0.0     0.0     0.0     0.0     0.0     0.0     0.0     0.0     0.0 LIG
   1045 SANGEL-RS525  0 1.023 -37.8     0.0     0.0     0.0     0.0     0.0     0.0     0.0     0.0  -314.0     0.0     0.0     0.0 LIG
   1046 SANGEL-RS230  0 1.020 -38.7     0.0     0.0     0.0     0.0     0.0     0.0     0.0     0.0     0.0     0.0     0.0     0.0 LIG
   1152 CANO-GUTE000 -1 0.992 -48.4     0.0     0.0     0.0     0.0     0.0     0.0     0.0     0.0     0.0     0.0     0.0     0.0 LIG
   1153 14JULH-RS230  0 1.009 -48.2     0.0     0.0     0.0     0.0     0.0     0.0     0.0     0.0     0.0     0.0     0.0     0.0 LIG
   1154 CALVES-RS230  0 1.008 -48.2     0.0     0.0     0.0     0.0     0.0     0.0     0.0     0.0     0.0     0.0     0.0     0.0 LIG
   1155 ITAUBAUHE000 -1 0.984 -45.3     0.0     0.0     0.0     0.0     0.0     0.0     0.0     0.0     0.0     0.0     0.0     0.0 LIG
   1156 ITAUBASIN003  1 0.932 -45.5     0.0  -150.9     0.0     0.0     7.5     3.6     0.0     0.0     0.0     0.0     0.0     0.0 LIG
   1159 MCLAROUHE000 -1 0.984 -48.2     0.0     0.0     0.0     0.0     0.0     0.0     0.0     0.0     0.0     0.0     0.0     0.0 LIG
   1161 MCLA-G-RS230  0 1.008 -48.2     0.0     0.0     0.0     0.0     0.0     0.0     0.0     0.0     0.0     0.0     0.0     0.0 LIG
   1163 LAJGDE-RS230  0 1.025 -45.3     0.0     0.0     0.0     0.0     0.0     0.0     0.0     0.0     0.0     0.0     0.0     0.0 LIG
   1164 URUG-GUTE000 -1 1.002 -43.7     0.0     0.0     0.0     0.0     0.0     0.0     0.0     0.0     0.0     0.0     0.0     0.0 LIG
   1165 URUG-VUTE000 -1 1.002 -43.7     0.0     0.0     0.0     0.0     0.0     0.0     0.0     0.0     0.0     0.0     0.0     0.0 LIG
   1166 CALVESUHE000 -1 0.984 -48.2     0.0     0.0     0.0     0.0     0.0     0.0     0.0     0.0     0.0     0.0     0.0     0.0 LIG
   1168 14JUL-UHE000 -1 0.984 -48.2     0.0     0.0     0.0     0.0     0.0     0.0     0.0     0.0     0.0     0.0     0.0     0.0 LIG
   1169 CANO-VUTE000 -1 0.992 -48.4     0.0     0.0     0.0     0.0     0.0     0.0     0.0     0.0     0.0     0.0     0.0     0.0 LIG
   1173 CANDI3UTE001  1 0.965 -38.3   326.6   -64.4     0.0     0.0    30.0    14.5     0.0     0.0     0.0     0.0     0.0     0.0 LIG
   1174 CANDI3-RS230  0 1.028 -45.0     0.0     0.0     0.0     0.0     0.0     0.0     0.0     0.0     0.0     0.0     0.0     0.0 LIG
   1175 PREAL-UHE002  1 0.991 -38.9   130.7    -7.4     0.0     0.0     0.0     0.0     0.0     0.0     0.0     0.0     0.0     0.0 LIG
   1176 DFRANCUHE000 -1 0.988 -45.1     0.0     0.0     0.0     0.0     0.0     0.0     0.0     0.0     0.0     0.0     0.0     0.0 LIG
   1177 DFRANCSIN002  1 0.986 -45.3     0.0    -0.5     0.0     0.0     2.4     1.2     0.0     0.0     0.0     0.0     0.0     0.0 LIG
   1181 VENAIRSIN000 -1 1.008 -49.4     0.0     0.0     0.0     0.0     0.0     0.0     0.0     0.0     0.0     0.0     0.0     0.0 LIG
CEPEL - CENTRO DE PESQUISAS DE ENERGIA ELETRICA - PROGRAMA DE ANALISE DE REDES - V11.07.02                                 PAG.  15

 ONS - 2Q2024 - AGOSTO - Máxima Diurna                                           
 RELATORIO DE BARRAS CA DO SISTEMA * AREA   2 * RS - 230 kV                         

 X---------------------X-----------X---------------X---------------X---------------X---------------X---------------X---------------X---X
          BARRA            TENSAO        GERACAO     INJECAO EQUIV        CARGA          ELO CC          SHUNT           MOTOR
  NUM.      NOME     TP  MOD   ANG      MW    Mvar\     MW    Mvar      MW    Mvar      MW    Mvar    Mvar   EQUIV      MW    Mvar
                                            CE Mvar                                                 SHUNT L                         EST
 X-----X------------X--X-----X-----X-------X-------X-------X-------X-------X-------X-------X-------X-------X-------X-------X-------X---X

   1186 ALEGR2-RS230  0 1.027 -43.8     0.0     0.0     0.0     0.0     0.0     0.0     0.0     0.0   -52.7     0.0     0.0     0.0 LIG
   1188 BAGE2--RS230  0 1.030 -45.6     0.0     0.0     0.0     0.0     0.0     0.0     0.0     0.0     0.0     0.0     0.0     0.0 LIG
   1190 CANOA1-RS230  0 1.020 -48.8     0.0     0.0     0.0     0.0     0.0     0.0     0.0     0.0     0.0     0.0     0.0     0.0 LIG
   1192 CAXIA5-RS230  0 1.015 -47.7     0.0     0.0     0.0     0.0     0.0     0.0     0.0     0.0     0.0     0.0     0.0     0.0 LIG
   1194 CAMAQU-RS230  0 1.028 -48.2     0.0     0.0     0.0     0.0     0.0     0.0     0.0     0.0     0.0     0.0     0.0     0.0 LIG
   1198 CAMPOB-RS230  0 1.013 -48.5     0.0     0.0     0.0     0.0     0.0     0.0     0.0     0.0     0.0     0.0     0.0     0.0 LIG
   1199 GUAIB2-RS230  0 1.023 -48.4     0.0     0.0     0.0     0.0     0.0     0.0     0.0     0.0     0.0     0.0     0.0     0.0 LIG
   1200 CAXIA2-RS230  0 1.011 -48.4     0.0     0.0     0.0     0.0     0.0     0.0     0.0     0.0     0.0     0.0     0.0     0.0 LIG
   1204 PPETRO-RS230  0 1.023 -48.2     0.0     0.0     0.0     0.0     0.0     0.0     0.0     0.0     0.0     0.0     0.0     0.0 LIG
   1206 GARIBA-RS230  0 1.003 -49.3     0.0     0.0     0.0     0.0     0.0     0.0     0.0     0.0     0.0     0.0     0.0     0.0 LIG
   1210 GRAVA2-RS230  0 1.013 -48.3     0.0     0.0     0.0     0.0     0.0     0.0     0.0     0.0     0.0     0.0     0.0     0.0 LIG
   1212 ELDORA-RS230  0 1.022 -48.6     0.0     0.0     0.0     0.0     0.0     0.0     0.0     0.0     0.0     0.0     0.0     0.0 LIG
   1213 GUARIT-RS230  0 1.022 -39.8     0.0     0.0     0.0     0.0     0.0     0.0     0.0     0.0     0.0     0.0     0.0     0.0 LIG
   1215 ITAUBA-RS230  0 1.009 -45.3     0.0     0.0     0.0     0.0     0.0     0.0     0.0     0.0     0.0     0.0     0.0     0.0 LIG
   1218 LAJEA2-RS230  0 1.017 -49.9     0.0     0.0     0.0     0.0     0.0     0.0     0.0     0.0    51.7     0.0     0.0     0.0 LIG
   1223 DFRANC-RS230  0 1.013 -45.1     0.0     0.0     0.0     0.0     0.0     0.0     0.0     0.0     0.0     0.0     0.0     0.0 LIG
   1225 MACAMB-RS230  0 1.026 -42.3     0.0     0.0     0.0     0.0     0.0     0.0     0.0     0.0     0.0     0.0     0.0     0.0 LIG
   1228 NPRAT2-RS230  0 1.007 -47.6     0.0     0.0     0.0     0.0     0.0     0.0     0.0     0.0     0.0     0.0     0.0     0.0 LIG
   1230 LIVRA2-RS230  0 1.017 -44.3     0.0     0.0     0.0     0.0     0.0     0.0     0.0     0.0   -31.1     0.0     0.0     0.0 LIG
   1231 OSORI2-RS230  0 1.019 -48.8     0.0     0.0     0.0     0.0     0.0     0.0     0.0     0.0     0.0     0.0     0.0     0.0 LIG
   1236 PELOT3-RS230  0 1.028 -48.3     0.0     0.0     0.0     0.0     0.0     0.0     0.0     0.0     0.0     0.0     0.0     0.0 LIG
   1239 PMEDIC-RS230  0 1.028 -45.0     0.0     0.0     0.0     0.0     0.0     0.0     0.0     0.0   -31.7     0.0     0.0     0.0 LIG
                                                0.0                                                   -10.6
   1243 PREAL--RS230  0 1.025 -44.2     0.0     0.0     0.0     0.0     0.0     0.0     0.0     0.0     0.0     0.0     0.0     0.0 LIG
   1246 QUINTA-RS230  0 1.026 -47.9     0.0     0.0     0.0     0.0     0.0     0.0     0.0     0.0     0.0     0.0     0.0     0.0 LIG
   1248 CANOA2-RS230  0 1.016 -48.4     0.0     0.0     0.0     0.0     0.0     0.0     0.0     0.0     0.0     0.0     0.0     0.0 LIG
   1249 TAQUAR-RS230  0 1.010 -49.2     0.0     0.0     0.0     0.0     0.0     0.0     0.0     0.0     0.0     0.0     0.0     0.0 LIG
   1250 SANGE2-RS230  0 1.020 -39.1     0.0     0.0     0.0     0.0     0.0     0.0     0.0     0.0     0.0     0.0     0.0     0.0 LIG
   1254 SBORJ2-RS230  0 1.032 -41.7     0.0     0.0     0.0     0.0     0.0     0.0     0.0     0.0     0.0     0.0     0.0     0.0 LIG
   1256 SCRUZ1-RS230  0 1.022 -48.2     0.0     0.0     0.0     0.0     0.0     0.0     0.0     0.0     0.0     0.0     0.0     0.0 LIG
                                                0.0                                                    -5.2
   1258 CINPAL-RS230  0 1.019 -48.4     0.0     0.0     0.0     0.0     0.0     0.0     0.0     0.0     0.0     0.0     0.0     0.0 LIG
   1259 PALGR4-RS230  0 1.018 -49.1     0.0     0.0     0.0     0.0     0.0     0.0     0.0     0.0     0.0     0.0     0.0     0.0 LIG
   1263 PALGR6-RS230  0 1.014 -49.1     0.0     0.0     0.0     0.0     0.0     0.0     0.0     0.0     0.0     0.0     0.0     0.0 LIG
   1264 PALGR8-RS230  0 1.018 -49.0     0.0     0.0     0.0     0.0     0.0     0.0     0.0     0.0     0.0     0.0     0.0     0.0 LIG
   1267 PALGR9-RS230  0 1.020 -48.8     0.0     0.0     0.0     0.0     0.0     0.0     0.0     0.0     0.0     0.0     0.0     0.0 LIG
   1268 PALG10-RS230  0 1.018 -49.2     0.0     0.0     0.0     0.0     0.0     0.0     0.0     0.0     0.0     0.0     0.0     0.0 LIG
   1270 PALG13-RS230  0 1.012 -49.3     0.0     0.0     0.0     0.0     0.0     0.0     0.0     0.0     0.0     0.0     0.0     0.0 LIG
   1278 SMARI3-RS230  0 1.019 -44.5     0.0     0.0     0.0     0.0     0.0     0.0     0.0     0.0     0.0     0.0     0.0     0.0 LIG
                                                0.0                                                   -55.1
   1281 SMARTA-RS230  0 1.020 -43.9     0.0     0.0     0.0     0.0     0.0     0.0     0.0     0.0     0.0     0.0     0.0     0.0 LIG
   1283 SROSA--RS230  0 1.022 -39.3     0.0     0.0     0.0     0.0     0.0     0.0     0.0     0.0     0.0     0.0     0.0     0.0 LIG
   1286 SVICEN-RS230  0 1.025 -44.7     0.0     0.0     0.0     0.0     0.0     0.0     0.0     0.0     0.0     0.0     0.0     0.0 LIG
   1287 PASSME-RS230  0 1.027 -45.0     0.0     0.0     0.0     0.0     0.0     0.0     0.0     0.0     0.0     0.0     0.0     0.0 LIG
   1288 PASMEIPCH013  0 1.003 -42.5     6.2     0.0     0.0     0.0     0.0     0.0     0.0     0.0     0.0     0.0     0.0     0.0 LIG
   1291 TAPERA-RS230  0 1.026 -45.3     0.0     0.0     0.0     0.0     0.0     0.0     0.0     0.0    52.6     0.0     0.0     0.0 LIG
   1294 URUGUA-RS230  0 1.028 -43.7     0.0     0.0     0.0     0.0     0.0     0.0     0.0     0.0   -31.7     0.0     0.0     0.0 LIG
   1296 URUGU5-RS230  0 1.027 -43.8     0.0     0.0     0.0     0.0     0.0     0.0     0.0     0.0     0.0     0.0     0.0     0.0 LIG
   1297 VENAIR-RS000  0 1.008 -49.4     0.0     0.0     0.0     0.0     0.0     0.0     0.0     0.0     0.0     0.0     0.0     0.0 LIG
CEPEL - CENTRO DE PESQUISAS DE ENERGIA ELETRICA - PROGRAMA DE ANALISE DE REDES - V11.07.02                                 PAG.  16

 ONS - 2Q2024 - AGOSTO - Máxima Diurna                                           
 RELATORIO DE BARRAS CA DO SISTEMA * AREA   2 * RS - 230 kV                         

 X---------------------X-----------X---------------X---------------X---------------X---------------X---------------X---------------X---X
          BARRA            TENSAO        GERACAO     INJECAO EQUIV        CARGA          ELO CC          SHUNT           MOTOR
  NUM.      NOME     TP  MOD   ANG      MW    Mvar\     MW    Mvar      MW    Mvar      MW    Mvar    Mvar   EQUIV      MW    Mvar
                                            CE Mvar                                                 SHUNT L                         EST
 X-----X------------X--X-----X-----X-------X-------X-------X-------X-------X-------X-------X-------X-------X-------X-------X-------X---X

   1299 VENAIR-RS230  0 1.021 -47.9     0.0     0.0     0.0     0.0     0.0     0.0     0.0     0.0     0.0     0.0     0.0     0.0 LIG
   1313 GRAVA3-RS230  0 1.014 -48.6     0.0     0.0     0.0     0.0     0.0     0.0     0.0     0.0     0.0     0.0     0.0     0.0 LIG
   1320 LBARRO-RS230  0 1.021 -48.9     0.0     0.0     0.0     0.0     0.0     0.0     0.0     0.0     0.0     0.0     0.0     0.0 LIG
   1323 IJUI2--RS230  0 1.020 -41.5     0.0     0.0     0.0     0.0     0.0     0.0     0.0     0.0     0.0     0.0     0.0     0.0 LIG
   1325 LVERME-RS230  0 1.026 -39.6     0.0     0.0     0.0     0.0     0.0     0.0     0.0     0.0    52.7     0.0     0.0     0.0 LIG
   1330 ATLAN2-RS230  0 1.022 -48.1     0.0     0.0     0.0     0.0     0.0     0.0     0.0     0.0     0.0     0.0     0.0     0.0 LIG
   1368 LBARR1-RS034  0 0.997 -48.8     0.0     0.0     0.0     0.0     0.0     0.0     0.0     0.0     0.0     0.0     0.0     0.0 LIG
   1369 OSORIOEOL034  0 0.995 -48.8     0.0    -1.4     0.0     0.0     0.0     0.0     0.0     0.0     0.0     0.0     0.0     0.0 LIG
   1370 SANGRAEOL034  0 0.995 -48.8     0.0    -1.4     0.0     0.0     0.0     0.0     0.0     0.0     0.0     0.0     0.0     0.0 LIG
   1371 INDIOSEOL034  0 0.992 -48.8     0.0    -1.4     0.0     0.0     0.0     0.0     0.0     0.0     0.0     0.0     0.0     0.0 LIG
   1372 LBARR3-RS034  0 0.996 -48.8     0.0     0.0     0.0     0.0     0.0     0.0     0.0     0.0     0.0     0.0     0.0     0.0 LIG
   1373 LBARR2-RS034  0 0.994 -48.8     0.0     0.0     0.0     0.0     0.0     0.0     0.0     0.0     0.0     0.0     0.0     0.0 LIG
   1386 CAXIA6-RS230  0 1.012 -48.2     0.0     0.0     0.0     0.0     0.0     0.0     0.0     0.0     0.0     0.0     0.0     0.0 LIG
   2078 MISSOE-RS230  0 1.029 -40.1     0.0     0.0     0.0     0.0     0.0     0.0     0.0     0.0     0.0     0.0     0.0     0.0 LIG
   2080 LIVRA3-RS230  0 1.016 -44.1     0.0     0.0     0.0     0.0     0.0     0.0     0.0     0.0   -61.9     0.0     0.0     0.0 LIG
                                                0.0                                                   -27.8
   2085 LIV3-1SIN001  1 0.913 -44.0     0.0   -41.1     0.0     0.0     0.0     0.0     0.0     0.0     0.0     0.0     0.0     0.0 LIG
   9196 LBARR4-RS034  0 1.032 -48.9     0.0     0.0     0.0     0.0     0.0     0.0     0.0     0.0    12.3     0.0     0.0     0.0 LIG
   9202 LIV--4-RS000  0 1.006 -45.5     0.0     0.0     0.0     0.0     0.0     0.0     0.0     0.0     0.0     0.0     0.0     0.0 LIG
   9213 LIV2-1-RS000  0 1.007 -45.6     0.0     0.0     0.0     0.0     0.0     0.0     0.0     0.0     0.0     0.0     0.0     0.0 LIG
   9262 JBOTAN-RS230  0 1.018 -49.2     0.0     0.0     0.0     0.0     0.0     0.0     0.0     0.0     0.0     0.0     0.0     0.0 LIG
   9263 VIAMA3-RS230  0 1.011 -49.0     0.0     0.0     0.0     0.0     0.0     0.0     0.0     0.0     0.0     0.0     0.0     0.0 LIG
   9302 RESTIN-RS230  0 1.011 -49.3     0.0     0.0     0.0     0.0     0.0     0.0     0.0     0.0     0.0     0.0     0.0     0.0 LIG
   9304 CACHO3-RS230  0 1.014 -48.4     0.0     0.0     0.0     0.0     0.0     0.0     0.0     0.0     0.0     0.0     0.0     0.0 LIG
   9308 PASSME-RS069  0 1.003 -43.0     0.0     0.0     0.0     0.0     0.0     0.0     0.0     0.0     0.0     0.0     0.0     0.0 LIG
   9309 SCAVA2-RS069  0 1.008 -41.9     0.0     0.0     0.0     0.0     0.0     0.0     0.0     0.0     0.0     0.0     0.0     0.0 LIG
   9310 SCAVA2PCH006  0 1.008 -41.1     7.0     0.0     0.0     0.0     0.0     0.0     0.0     0.0     0.0     0.0     0.0     0.0 LIG
   9311 PEZZI--RS069  0 1.008 -44.4     0.0     0.0     0.0     0.0     0.0     0.0     0.0     0.0     0.0     0.0     0.0     0.0 LIG
   9312 PEZZI-PCH006  0 1.008 -43.6     4.6     0.0     0.0     0.0     0.0     0.0     0.0     0.0     0.0     0.0     0.0     0.0 LIG
   9315 PME--1-RS000  0 1.002 -43.0     0.0     0.0     0.0     0.0     0.0     0.0     0.0     0.0     0.0     0.0     0.0     0.0 LIG
   9547 NPETR2-RS230  0 1.016 -47.8     0.0     0.0     0.0     0.0     0.0     0.0     0.0     0.0     0.0     0.0     0.0     0.0 LIG
   9569 CAMAQ3-RS230  0 1.042 -48.3     0.0     0.0     0.0     0.0     0.0     0.0     0.0     0.0     0.0     0.0     0.0     0.0 LIG
   9590 CANDE2-RS230  0 1.017 -46.9     0.0     0.0     0.0     0.0     0.0     0.0     0.0     0.0     0.0     0.0     0.0     0.0 LIG
   9693 TORRE2-RS230  0 1.023 -45.7     0.0     0.0     0.0     0.0     0.0     0.0     0.0     0.0     0.0     0.0     0.0     0.0 LIG
   9731 CERCHA-RS230  0 1.016 -44.1     0.0     0.0     0.0     0.0     0.0     0.0     0.0     0.0     0.0     0.0     0.0     0.0 LIG
   9732 CERCH1EOL034  0 1.003 -44.0     0.0    -5.2     0.0     0.0     0.0     0.0     0.0     0.0     0.0     0.0     0.0     0.0 LIG
   9733 CERCH2EOL034  0 1.003 -43.9     0.0    -5.6     0.0     0.0     0.0     0.0     0.0     0.0     0.0     0.0     0.0     0.0 LIG
   9734 CERCH3EOL034  0 1.004 -44.0     0.0    -5.2     0.0     0.0     0.0     0.0     0.0     0.0     0.0     0.0     0.0     0.0 LIG
   9780 SCHAR2-RS230  0 1.020 -48.6     0.0     0.0     0.0     0.0     0.0     0.0     0.0     0.0     0.0     0.0     0.0     0.0 LIG
   9783 LAJEA3-RS230  0 1.013 -50.0     0.0     0.0     0.0     0.0     0.0     0.0     0.0     0.0     0.0     0.0     0.0     0.0 LIG
   9785 CANDIO-RS230  0 1.028 -45.0     0.0     0.0     0.0     0.0     0.0     0.0     0.0     0.0     0.0     0.0     0.0     0.0 LIG
   9786 CANDIO-RS525  0 1.009 -45.0     0.0     0.0     0.0     0.0     0.0     0.0     0.0     0.0   -76.3     0.0     0.0     0.0 LIG
   9787 CFMELO-RS525  0 1.008 -45.0     0.0     0.0     0.0     0.0     0.0     0.0     0.0     0.0     0.0     0.0     0.0     0.0 LIG
                                                0.0                                                   -93.4
   9794 COXSEC-RS034  0 1.012 -44.1     0.0     0.0     0.0     0.0     0.0     0.0     0.0     0.0     0.0     0.0     0.0     0.0 LIG
   9803 ATLANT-RS012  0 1.015 -48.8     0.0     0.0     0.0     0.0     0.0     0.0     0.0     0.0     9.3     0.0     0.0     0.0 LIG
   9806 ATLANT-RS230  0 1.015 -48.8     0.0     0.0     0.0     0.0     0.0     0.0     0.0     0.0     0.0     0.0     0.0     0.0 LIG
   9807 OSOR23-RS034  0 0.995 -48.9     0.0     0.0     0.0     0.0     0.0     0.0     0.0     0.0     4.1     0.0     0.0     0.0 LIG
   9808 SANG23-RS034  0 1.004 -48.9     0.0     0.0     0.0     0.0     0.0     0.0     0.0     0.0     4.1     0.0     0.0     0.0 LIG
CEPEL - CENTRO DE PESQUISAS DE ENERGIA ELETRICA - PROGRAMA DE ANALISE DE REDES - V11.07.02                                 PAG.  17

 ONS - 2Q2024 - AGOSTO - Máxima Diurna                                           
 RELATORIO DE BARRAS CA DO SISTEMA * AREA   2 * RS - 230 kV                         

 X---------------------X-----------X---------------X---------------X---------------X---------------X---------------X---------------X---X
          BARRA            TENSAO        GERACAO     INJECAO EQUIV        CARGA          ELO CC          SHUNT           MOTOR
  NUM.      NOME     TP  MOD   ANG      MW    Mvar\     MW    Mvar      MW    Mvar      MW    Mvar    Mvar   EQUIV      MW    Mvar
                                            CE Mvar                                                 SHUNT L                         EST
 X-----X------------X--X-----X-----X-------X-------X-------X-------X-------X-------X-------X-------X-------X-------X-------X-------X---X

   9818 POVNOV-RS525  0 1.009 -47.0     0.0     0.0     0.0     0.0     0.0     0.0     0.0     0.0     0.0     0.0     0.0     0.0 LIG
                                                0.0                                                  -560.1
   9819 POVNOV-RS230  0 1.024 -47.3     0.0     0.0     0.0     0.0     0.0     0.0     0.0     0.0     0.0     0.0     0.0     0.0 LIG
   9836 VINHED-RS230  0 1.002 -49.3     0.0     0.0     0.0     0.0     0.0     0.0     0.0     0.0     0.0     0.0     0.0     0.0 LIG
   9853 IBIRAPEOL034  0 1.000 -43.9     0.0    -3.3     0.0     0.0     0.0     0.0     0.0     0.0     0.0     0.0     0.0     0.0 LIG
   9854 CERCH6EOL034  0 1.030   0.0     0.0     0.0     0.0     0.0     0.0     0.0     0.0     0.0     0.0     0.0     0.0     0.0 DES
   9855 CTRICC-RS034  0 1.013 -44.1     0.0     0.0     0.0     0.0     0.0     0.0     0.0     0.0     0.0     0.0     0.0     0.0 LIG
   9865 PONTAL-RS230  0 1.011 -49.0     0.0     0.0     0.0     0.0     0.0     0.0     0.0     0.0     0.0     0.0     0.0     0.0 LIG
   9866 PONTAL-RS034  0 1.004 -49.0     0.0     0.0     0.0     0.0     0.0     0.0     0.0     0.0     0.0     0.0     0.0     0.0 LIG
   9867 PONT2BEOL034  1 1.009 -49.0     0.0     0.9     0.0     0.0     0.0     0.0     0.0     0.0     0.0     0.0     0.0     0.0 LIG
   9868 PO2A3BEOL034  0 0.995 -48.9     0.0    -6.5     0.0     0.0     0.0     0.0     0.0     0.0     0.0     0.0     0.0     0.0 LIG
   9895 INDI23-RS034  0 1.002 -48.9     0.0     0.0     0.0     0.0     0.0     0.0     0.0     0.0     4.1     0.0     0.0     0.0 LIG
   9901 OSORI3-RS230  0 1.020 -48.8     0.0     0.0     0.0     0.0     0.0     0.0     0.0     0.0     0.0     0.0     0.0     0.0 LIG
   9920 VILMAR-RS230  0 1.006 -46.4     0.0     0.0     0.0     0.0     0.0     0.0     0.0     0.0     0.0     0.0     0.0     0.0 LIG
   9948 CINGLEEOL034  0 1.010 -44.1     0.0    -1.4     0.0     0.0     0.0     0.0     0.0     0.0     0.0     0.0     0.0     0.0 LIG
   9949 COXSECEOL034  0 1.007 -44.1     0.0    -5.2     0.0     0.0     0.0     0.0     0.0     0.0     0.0     0.0     0.0     0.0 LIG
   9950 GALPOEEOL034  0 1.009 -44.1     0.0    -0.8     0.0     0.0     0.0     0.0     0.0     0.0     0.0     0.0     0.0     0.0 LIG
   9951 CANDI2-RS525  0 1.028 -45.7     0.0     0.0     0.0     0.0     0.0     0.0     0.0     0.0     0.0     0.0     0.0     0.0 LIG
                                                0.0                                                  -317.3
   9952 CANDI2-RS230  0 1.030 -45.3     0.0     0.0     0.0     0.0     0.0     0.0     0.0     0.0     0.0     0.0     0.0     0.0 LIG
   9958 CCH6CI-RS034  0 1.010 -44.1     0.0     0.0     0.0     0.0     0.0     0.0     0.0     0.0     0.0     0.0     0.0     0.0 LIG
   9959 IB1GAL-RS034  0 1.011 -44.1     0.0     0.0     0.0     0.0     0.0     0.0     0.0     0.0     0.0     0.0     0.0     0.0 LIG
   9961 PALEG1-RS230  0 1.018 -49.1     0.0     0.0     0.0     0.0     0.0     0.0     0.0     0.0     0.0     0.0     0.0     0.0 LIG
   9970 MACAM3-RS230  0 1.026 -42.3     0.0     0.0     0.0     0.0     0.0     0.0     0.0     0.0     0.0     0.0     0.0     0.0 LIG
                                                0.0                                                   -78.9
  10108 SANG23EOL034  0 1.002 -48.8     0.0    -2.8     0.0     0.0     0.0     0.0     0.0     0.0     0.0     0.0     0.0     0.0 LIG
  10109 OSOR23EOL034  0 0.989 -48.7     0.0    -3.1     0.0     0.0     0.0     0.0     0.0     0.0     0.0     0.0     0.0     0.0 LIG
  10110 INDI23EOL034  0 0.996 -48.7     0.0    -3.1     0.0     0.0     0.0     0.0     0.0     0.0     0.0     0.0     0.0     0.0 LIG
  10115 CCHAT1-RS034  0 1.012 -44.1     0.0     0.0     0.0     0.0     0.0     0.0     0.0     0.0     0.0     0.0     0.0     0.0 LIG
  10116 CCHAT2-RS034  0 1.013 -44.1     0.0     0.0     0.0     0.0     0.0     0.0     0.0     0.0     0.0     0.0     0.0     0.0 LIG
  10117 CCHAT3-RS034  0 1.013 -44.1     0.0     0.0     0.0     0.0     0.0     0.0     0.0     0.0     0.0     0.0     0.0     0.0 LIG
  10118 CC45CTEOL034  0 1.000   0.0     0.0     0.0     0.0     0.0     0.0     0.0     0.0     0.0     0.0     0.0     0.0     0.0 DES
  10119 ATLANTEOL012  1 1.011 -48.6     0.0   -24.0     0.0     0.0     0.0     0.0     0.0     0.0     0.0     0.0     0.0     0.0 LIG
  10150 PASSM2-RS069  0 1.007 -44.6     0.0     0.0     0.0     0.0     0.0     0.0     0.0     0.0     0.0     0.0     0.0     0.0 LIG
  10151 SCAVA1-RS069  0 1.007 -42.1     0.0     0.0     0.0     0.0     0.0     0.0     0.0     0.0     0.0     0.0     0.0     0.0 LIG
  10152 SCAVA1PCH006  0 1.007 -41.3     6.4     0.0     0.0     0.0     0.0     0.0     0.0     0.0     0.0     0.0     0.0     0.0 LIG
  10218 CALTA2-RS230  0 1.022 -43.2     0.0     0.0     0.0     0.0     0.0     0.0     0.0     0.0     0.0     0.0     0.0     0.0 LIG
  10256 JBOTA1-RS230  0 1.018 -49.1     0.0     0.0     0.0     0.0     0.0     0.0     0.0     0.0     0.0     0.0     0.0     0.0 LIG
  10257 JBOTA2-RS230  0 1.018 -49.2     0.0     0.0     0.0     0.0     0.0     0.0     0.0     0.0     0.0     0.0     0.0     0.0 LIG
  10276 CHARQ3-RS230  0 1.023 -48.4     0.0     0.0     0.0     0.0     0.0     0.0     0.0     0.0     0.0     0.0     0.0     0.0 LIG
  10278 CHQ3-1-RS000  0 1.003 -48.5     0.0     0.0     0.0     0.0     0.0     0.0     0.0     0.0     0.0     0.0     0.0     0.0 LIG
  10279 CHQ3-1-RS013  0 1.003 -48.5     0.0     0.0     0.0     0.0     0.0     0.0     0.0     0.0     0.0     0.0     0.0     0.0 LIG
  10280 CHQ3-2-RS000  0 1.003 -48.5     0.0     0.0     0.0     0.0     0.0     0.0     0.0     0.0     0.0     0.0     0.0     0.0 LIG
  10281 CHQ3-2-RS013  0 1.003 -48.5     0.0     0.0     0.0     0.0     0.0     0.0     0.0     0.0     0.0     0.0     0.0     0.0 LIG
  10282 CHQ3-1-RS230  0 1.023 -48.4     0.0     0.0     0.0     0.0     0.0     0.0     0.0     0.0     0.0     0.0     0.0     0.0 LIG
  10283 CHQ3-2-RS230  0 1.023 -48.4     0.0     0.0     0.0     0.0     0.0     0.0     0.0     0.0     0.0     0.0     0.0     0.0 LIG
  10419 VAI--3-RS000  0 1.007 -49.5     0.0     0.0     0.0     0.0     0.0     0.0     0.0     0.0     0.0     0.0     0.0     0.0 LIG
  10420 VAIR-3-RS013  0 1.007 -49.5     0.0     0.0     0.0     0.0     0.0     0.0     0.0     0.0     0.0     0.0     0.0     0.0 LIG
  10466 CNEGR2-RS230  0 1.023 -44.1     0.0     0.0     0.0     0.0     0.0     0.0     0.0     0.0     0.0     0.0     0.0     0.0 LIG
CEPEL - CENTRO DE PESQUISAS DE ENERGIA ELETRICA - PROGRAMA DE ANALISE DE REDES - V11.07.02                                 PAG.  18

 ONS - 2Q2024 - AGOSTO - Máxima Diurna                                           
 RELATORIO DE BARRAS CA DO SISTEMA * AREA   2 * RS - 230 kV                         

 X---------------------X-----------X---------------X---------------X---------------X---------------X---------------X---------------X---X
          BARRA            TENSAO        GERACAO     INJECAO EQUIV        CARGA          ELO CC          SHUNT           MOTOR
  NUM.      NOME     TP  MOD   ANG      MW    Mvar\     MW    Mvar      MW    Mvar      MW    Mvar    Mvar   EQUIV      MW    Mvar
                                            CE Mvar                                                 SHUNT L                         EST
 X-----X------------X--X-----X-----X-------X-------X-------X-------X-------X-------X-------X-------X-------X-------X-------X-------X---X

  10467 CNEG-3-RS034  0 1.037 -44.1     0.0     0.0     0.0     0.0     0.0     0.0     0.0     0.0     0.0     0.0     0.0     0.0 LIG
  10468 CNEG3-EOL034 -1 1.044 -44.2     0.0     0.0     0.0     0.0     0.0     0.0     0.0     0.0     0.0     0.0     0.0     0.0 LIG
  10469 CNEG-2-RS034  0 1.033 -44.1     0.0     0.0     0.0     0.0     0.0     0.0     0.0     0.0     0.0     0.0     0.0     0.0 LIG
  10470 CNEG2-EOL034 -1 1.035 -44.2     0.0     0.0     0.0     0.0     0.0     0.0     0.0     0.0     0.0     0.0     0.0     0.0 LIG
  10471 CNEGR3-RS230  0 1.024 -44.1     0.0     0.0     0.0     0.0     0.0     0.0     0.0     0.0     0.0     0.0     0.0     0.0 LIG
  10472 CNEG-4-RS034  0 1.034 -44.1     0.0     0.0     0.0     0.0     0.0     0.0     0.0     0.0     0.0     0.0     0.0     0.0 LIG
  10473 CNEG4-EOL034 -1 1.038 -44.2     0.0     0.0     0.0     0.0     0.0     0.0     0.0     0.0     0.0     0.0     0.0     0.0 LIG
  10474 CN3-1--RS000  0 1.038 -44.1     0.0     0.0     0.0     0.0     0.0     0.0     0.0     0.0     0.0     0.0     0.0     0.0 LIG
  10475 CNE3---RS013  0 1.038 -44.1     0.0     0.0     0.0     0.0     0.0     0.0     0.0     0.0     0.0     0.0     0.0     0.0 LIG
  10476 CN2-1--RS000  0 1.033 -44.1     0.0     0.0     0.0     0.0     0.0     0.0     0.0     0.0     0.0     0.0     0.0     0.0 LIG
  10477 CNE2---RS013  0 1.033 -44.1     0.0     0.0     0.0     0.0     0.0     0.0     0.0     0.0     0.0     0.0     0.0     0.0 LIG
  10478 CN4-1--RS000  0 1.035 -44.1     0.0     0.0     0.0     0.0     0.0     0.0     0.0     0.0     0.0     0.0     0.0     0.0 LIG
  10479 CNE4---RS013  0 1.035 -44.1     0.0     0.0     0.0     0.0     0.0     0.0     0.0     0.0     0.0     0.0     0.0     0.0 LIG
  10483 LIV3CS2RS000  0 0.933 -44.0     0.0     0.0     0.0     0.0     0.0     0.0     0.0     0.0     0.0     0.0     0.0     0.0 LIG
  10484 LIV3-2SIN001  1 0.908 -44.0     0.0   -41.1     0.0     0.0     0.0     0.0     0.0     0.0     0.0     0.0     0.0     0.0 LIG
  10486 RIVE-2-RS000  0 1.002 -44.3     0.0     0.0     0.0     0.0     0.0     0.0     0.0     0.0     0.0     0.0     0.0     0.0 LIG
  10487 RIVE-3-RS000  0 1.002 -44.3     0.0     0.0     0.0     0.0     0.0     0.0     0.0     0.0     0.0     0.0     0.0     0.0 LIG
  10488 RIVE-4-RS000  0 1.002 -44.3     0.0     0.0     0.0     0.0     0.0     0.0     0.0     0.0     0.0     0.0     0.0     0.0 LIG
  10489 RIVE-2-RS009  0 1.002 -44.3     0.0     0.0     0.0     0.0     0.0     0.0     0.0     0.0     0.0     0.0     0.0     0.0 LIG
  10701 SANRE2-RS013  0 1.024 -37.9     0.0     0.0     0.0     0.0     0.0     0.0     0.0     0.0     0.0     0.0     0.0     0.0 LIG
  10702 SANRE3-RS013  0 1.023 -37.9     0.0     0.0     0.0     0.0     0.0     0.0     0.0     0.0     0.0     0.0     0.0     0.0 LIG
  10703 PFURE3-RS013  0 1.014 -41.5     0.0     0.0     0.0     0.0     0.0     0.0     0.0     0.0     0.0     0.0     0.0     0.0 LIG
  41001 CAXI-1-RS013  0 1.028 -44.9     0.0     0.0     0.0     0.0     0.0     0.0     0.0     0.0     0.0     0.0     0.0     0.0 LIG
  41002 CAXI-2-RS013  0 1.028 -44.9     0.0     0.0     0.0     0.0     0.0     0.0     0.0     0.0     0.0     0.0     0.0     0.0 LIG
  41003 GRAR-1-RS013  0 1.022 -48.4     0.0     0.0     0.0     0.0     0.0     0.0     0.0     0.0     0.0     0.0     0.0     0.0 LIG
  41004 P10-A--RS230  0 1.018 -49.2     0.0     0.0     0.0     0.0     0.0     0.0     0.0     0.0     0.0     0.0     0.0     0.0 LIG
  41005 RIVE-1-RS009  0 1.002 -44.3     0.0     0.0     0.0     0.0     0.0     0.0     0.0     0.0     0.0     0.0     0.0     0.0 LIG
  41006 SAN-2--RS013  0 1.024 -37.9     0.0     0.0     0.0     0.0     0.0     0.0     0.0     0.0     0.0     0.0     0.0     0.0 LIG
  41007 SAN-3--RS013  0 1.023 -37.9     0.0     0.0     0.0     0.0     0.0     0.0     0.0     0.0     0.0     0.0     0.0     0.0 LIG
  41008 ALE2-1-RS013  0 1.011 -44.2     0.0     0.0     0.0     0.0     0.0     0.0     0.0     0.0     0.0     0.0     0.0     0.0 LIG
  41009 ALE2-2-RS013  0 1.011 -44.2     0.0     0.0     0.0     0.0     0.0     0.0     0.0     0.0     0.0     0.0     0.0     0.0 LIG
  41010 ATL2-1-RS013  0 1.002 -48.7     0.0     0.0     0.0     0.0     0.0     0.0     0.0     0.0     0.0     0.0     0.0     0.0 LIG
  41011 ATL2-3-RS013  0 1.002 -48.7     0.0     0.0     0.0     0.0     0.0     0.0     0.0     0.0     0.0     0.0     0.0     0.0 LIG
  41012 ATL2-2-RS013  0 1.002 -48.7     0.0     0.0     0.0     0.0     0.0     0.0     0.0     0.0     0.0     0.0     0.0     0.0 LIG
  41013 BAG2-5-RS013  0 1.009 -47.5     0.0     0.0     0.0     0.0     0.0     0.0     0.0     0.0     0.0     0.0     0.0     0.0 LIG
  41014 BAG2-1-RS013  0 1.009 -47.5     0.0     0.0     0.0     0.0     0.0     0.0     0.0     0.0     0.0     0.0     0.0     0.0 LIG
  41015 BAG2-2-RS013  0 1.009 -47.4     0.0     0.0     0.0     0.0     0.0     0.0     0.0     0.0     0.0     0.0     0.0     0.0 LIG
  41016 CAM--1-RS013  0 0.992 -48.2     0.0     0.0     0.0     0.0     0.0     0.0     0.0     0.0     0.0     0.0     0.0     0.0 LIG
  41017 CAM--2-RS013  0 0.992 -48.2     0.0     0.0     0.0     0.0     0.0     0.0     0.0     0.0     0.0     0.0     0.0     0.0 LIG
  41018 CAM-1--RS013  0 1.008 -49.4     0.0     0.0     0.0     0.0     0.0     0.0     0.0     0.0     0.0     0.0     0.0     0.0 LIG
  41019 CAM-5--RS013  0 1.008 -49.3     0.0     0.0     0.0     0.0     0.0     0.0     0.0     0.0     0.0     0.0     0.0     0.0 LIG
  41020 CAN--1-RS013  0 1.008 -45.0     0.0     0.0     0.0     0.0     0.0     0.0     0.0     0.0     0.0     0.0     0.0     0.0 LIG
  41021 CAN--2-RS013  0 1.034 -51.1     0.0     0.0     0.0     0.0     0.0     0.0     0.0     0.0     0.0     0.0     0.0     0.0 LIG
  41022 CAX2-1-RS013  0 0.997 -53.7     0.0     0.0     0.0     0.0     0.0     0.0     0.0     0.0     0.0     0.0     0.0     0.0 LIG
  41023 CAX5-2-RS013  0 1.025 -52.6     0.0     0.0     0.0     0.0     0.0     0.0     0.0     0.0     0.0     0.0     0.0     0.0 LIG
  41024 CAX5-3-RS013  0 1.006 -49.6     0.0     0.0     0.0     0.0     0.0     0.0     0.0     0.0     0.0     0.0     0.0     0.0 LIG
  41025 CAX5-1-RS013  0 1.003 -54.2     0.0     0.0     0.0     0.0     0.0     0.0     0.0     0.0     0.0     0.0     0.0     0.0 LIG
  41026 CAX6-1-RS013  0 1.005 -50.7     0.0     0.0     0.0     0.0     0.0     0.0     0.0     0.0     0.0     0.0     0.0     0.0 LIG
  41027 CAX6-2-RS013  0 1.005 -50.7     0.0     0.0     0.0     0.0     0.0     0.0     0.0     0.0     0.0     0.0     0.0     0.0 LIG
CEPEL - CENTRO DE PESQUISAS DE ENERGIA ELETRICA - PROGRAMA DE ANALISE DE REDES - V11.07.02                                 PAG.  19

 ONS - 2Q2024 - AGOSTO - Máxima Diurna                                           
 RELATORIO DE BARRAS CA DO SISTEMA * AREA   2 * RS - 230 kV                         

 X---------------------X-----------X---------------X---------------X---------------X---------------X---------------X---------------X---X
          BARRA            TENSAO        GERACAO     INJECAO EQUIV        CARGA          ELO CC          SHUNT           MOTOR
  NUM.      NOME     TP  MOD   ANG      MW    Mvar\     MW    Mvar      MW    Mvar      MW    Mvar    Mvar   EQUIV      MW    Mvar
                                            CE Mvar                                                 SHUNT L                         EST
 X-----X------------X--X-----X-----X-------X-------X-------X-------X-------X-------X-------X-------X-------X-------X-------X-------X---X

  41028 CAXIAA-RS013  0 1.028 -44.9     0.0     0.0     0.0     0.0     0.0     0.0     0.0     0.0     0.0     0.0     0.0     0.0 LIG
  41029 CAXIAB-RS013  0 1.028 -44.9     0.0     0.0     0.0     0.0     0.0     0.0     0.0     0.0     0.0     0.0     0.0     0.0 LIG
  41030 CAXI-3-RS013  0 1.027 -45.1     0.0     0.0     0.0     0.0     0.0     0.0     0.0     0.0     0.0     0.0     0.0     0.0 LIG
  41031 CBO--6-RS013  0 1.017 -51.5     0.0     0.0     0.0     0.0     0.0     0.0     0.0     0.0     0.0     0.0     0.0     0.0 LIG
  41032 CBO--7-RS013  0 1.001 -51.2     0.0     0.0     0.0     0.0     0.0     0.0     0.0     0.0     0.0     0.0     0.0     0.0 LIG
  41033 CBO-1--RS013  0 1.001 -51.2     0.0     0.0     0.0     0.0     0.0     0.0     0.0     0.0     0.0     0.0     0.0     0.0 LIG
  41034 CBO-2--RS013  0 1.001 -51.2     0.0     0.0     0.0     0.0     0.0     0.0     0.0     0.0     0.0     0.0     0.0     0.0 LIG
  41035 CBO-3--RS013  0 1.069 -50.5     0.0     0.0     0.0     0.0     0.0     0.0     0.0     0.0     0.0     0.0     0.0     0.0 LIG
  41036 CCHA-1-RS013  0 1.012 -44.1     0.0     0.0     0.0     0.0     0.0     0.0     0.0     0.0     0.0     0.0     0.0     0.0 LIG
  41037 CCHA-2-RS013  0 1.012 -44.1     0.0     0.0     0.0     0.0     0.0     0.0     0.0     0.0     0.0     0.0     0.0     0.0 LIG
  41038 CCHA-3-RS013  0 1.012 -44.1     0.0     0.0     0.0     0.0     0.0     0.0     0.0     0.0     0.0     0.0     0.0     0.0 LIG
  41039 CCHA-4-RS013  0 1.013 -44.1     0.0     0.0     0.0     0.0     0.0     0.0     0.0     0.0     0.0     0.0     0.0     0.0 LIG
  41040 CCHA-5-RS013  0 1.010 -44.1     0.0     0.0     0.0     0.0     0.0     0.0     0.0     0.0     0.0     0.0     0.0     0.0 LIG
  41041 CCHA-6-RS013  0 1.010 -44.1     0.0     0.0     0.0     0.0     0.0     0.0     0.0     0.0     0.0     0.0     0.0     0.0 LIG
  41042 CCHA-7-RS013  0 1.013 -44.1     0.0     0.0     0.0     0.0     0.0     0.0     0.0     0.0     0.0     0.0     0.0     0.0 LIG
  41043 CHA--6-RS013  0 1.012 -50.0     0.0     0.0     0.0     0.0     0.0     0.0     0.0     0.0     0.0     0.0     0.0     0.0 LIG
  41044 CHA--5-RS013  0 1.003 -49.9     0.0     0.0     0.0     0.0     0.0     0.0     0.0     0.0     0.0     0.0     0.0     0.0 LIG
  41045 CHA--9-RS013  0 1.008 -52.0     0.0     0.0     0.0     0.0     0.0     0.0     0.0     0.0     0.0     0.0     0.0     0.0 LIG
  41050 CIN--1-RS013  0 1.000 -50.5     0.0     0.0     0.0     0.0     0.0     0.0     0.0     0.0     0.0     0.0     0.0     0.0 LIG
  41051 CIN--2-RS013  0 1.000 -50.5     0.0     0.0     0.0     0.0     0.0     0.0     0.0     0.0     0.0     0.0     0.0     0.0 LIG
  41052 CIPA-A-RS013  0 1.032 -47.4     0.0     0.0     0.0     0.0     0.0     0.0     0.0     0.0     0.0     0.0     0.0     0.0 LIG
  41053 CIPA-B-RS013  0 1.029 -48.1     0.0     0.0     0.0     0.0     0.0     0.0     0.0     0.0     0.0     0.0     0.0     0.0 LIG
  41054 CAN-1--RS013  0 1.032 -51.3     0.0     0.0     0.0     0.0     0.0     0.0     0.0     0.0     0.0     0.0     0.0     0.0 LIG
  41057 ELD--1-RS013  0 1.037 -50.6     0.0     0.0     0.0     0.0     0.0     0.0     0.0     0.0     0.0     0.0     0.0     0.0 LIG
  41058 FAR--2-RS013  0 1.008 -50.3     0.0     0.0     0.0     0.0     0.0     0.0     0.0     0.0     0.0     0.0     0.0     0.0 LIG
  41059 FAR-1--RS013  0 1.007 -50.4     0.0     0.0     0.0     0.0     0.0     0.0     0.0     0.0     0.0     0.0     0.0     0.0 LIG
  41066 GARI-1-RS013  0 1.002 -51.6     0.0     0.0     0.0     0.0     0.0     0.0     0.0     0.0     0.0     0.0     0.0     0.0 LIG
  41067 GAR1-2-RS013  0 1.002 -51.5     0.0     0.0     0.0     0.0     0.0     0.0     0.0     0.0     0.0     0.0     0.0     0.0 LIG
  41068 GRA2-1-RS013  0 1.010 -51.5     0.0     0.0     0.0     0.0     0.0     0.0     0.0     0.0     0.0     0.0     0.0     0.0 LIG
  41069 GRA2-2-RS013  0 1.010 -51.7     0.0     0.0     0.0     0.0     0.0     0.0     0.0     0.0     0.0     0.0     0.0     0.0 LIG
  41070 GRA2-3-RS013  0 1.052 -49.9     0.0     0.0     0.0     0.0     0.0     0.0     0.0     0.0     0.0     0.0     0.0     0.0 LIG
  41071 GRA3-1-RS013  0 1.004 -53.4     0.0     0.0     0.0     0.0     0.0     0.0     0.0     0.0     0.0     0.0     0.0     0.0 LIG
  41072 GRAV-1-RS013  0 1.022 -48.4     0.0     0.0     0.0     0.0     0.0     0.0     0.0     0.0     0.0     0.0     0.0     0.0 LIG
  41073 GRAV-2-RS013  0 1.009 -46.8     0.0     0.0     0.0     0.0     0.0     0.0     0.0     0.0     0.0     0.0     0.0     0.0 LIG
  41074 GRAV-3-RS013  0 1.024 -48.7     0.0     0.0     0.0     0.0     0.0     0.0     0.0     0.0     0.0     0.0     0.0     0.0 LIG
  41075 GUAI-1-RS013  0 1.003 -50.4     0.0     0.0     0.0     0.0     0.0     0.0     0.0     0.0     0.0     0.0     0.0     0.0 LIG
  41076 GUAI-2-RS013  0 1.004 -50.3     0.0     0.0     0.0     0.0     0.0     0.0     0.0     0.0     0.0     0.0     0.0     0.0 LIG
  41077 GUAI-3-RS013  0 1.003 -50.3     0.0     0.0     0.0     0.0     0.0     0.0     0.0     0.0     0.0     0.0     0.0     0.0 LIG
  41078 GUA--1-RS013  0 1.009 -41.1     0.0     0.0     0.0     0.0     0.0     0.0     0.0     0.0     0.0     0.0     0.0     0.0 LIG
  41079 GUA--2-RS013  0 1.009 -41.1     0.0     0.0     0.0     0.0     0.0     0.0     0.0     0.0     0.0     0.0     0.0     0.0 LIG
  41080 GUAR-7-RS013  0 1.011 -41.1     0.0     0.0     0.0     0.0     0.0     0.0     0.0     0.0     0.0     0.0     0.0     0.0 LIG
  41081 IJUI-1-RS013  0 1.004 -42.6     0.0     0.0     0.0     0.0     0.0     0.0     0.0     0.0     0.0     0.0     0.0     0.0 LIG
  41082 IJUI-2-RS013  0 1.004 -42.6     0.0     0.0     0.0     0.0     0.0     0.0     0.0     0.0     0.0     0.0     0.0     0.0 LIG
  41083 LAJ2-1-RS013  0 1.000 -53.4     0.0     0.0     0.0     0.0     0.0     0.0     0.0     0.0     0.0     0.0     0.0     0.0 LIG
  41084 LAJ2-2-RS013  0 1.000 -53.4     0.0     0.0     0.0     0.0     0.0     0.0     0.0     0.0     0.0     0.0     0.0     0.0 LIG
  41085 LAJ2-3-RS013  0 1.000 -53.4     0.0     0.0     0.0     0.0     0.0     0.0     0.0     0.0     0.0     0.0     0.0     0.0 LIG
  41086 LGRA-1-RS013  0 1.008 -45.3     0.0     0.0     0.0     0.0     0.0     0.0     0.0     0.0     0.0     0.0     0.0     0.0 LIG
  41087 LGRA-2-RS013  0 1.008 -45.3     0.0     0.0     0.0     0.0     0.0     0.0     0.0     0.0     0.0     0.0     0.0     0.0 LIG
  41089 LVER-1-RS013  0 1.029 -41.0     0.0     0.0     0.0     0.0     0.0     0.0     0.0     0.0     0.0     0.0     0.0     0.0 LIG
CEPEL - CENTRO DE PESQUISAS DE ENERGIA ELETRICA - PROGRAMA DE ANALISE DE REDES - V11.07.02                                 PAG.  20

 ONS - 2Q2024 - AGOSTO - Máxima Diurna                                           
 RELATORIO DE BARRAS CA DO SISTEMA * AREA   2 * RS - 230 kV                         

 X---------------------X-----------X---------------X---------------X---------------X---------------X---------------X---------------X---X
          BARRA            TENSAO        GERACAO     INJECAO EQUIV        CARGA          ELO CC          SHUNT           MOTOR
  NUM.      NOME     TP  MOD   ANG      MW    Mvar\     MW    Mvar      MW    Mvar      MW    Mvar    Mvar   EQUIV      MW    Mvar
                                            CE Mvar                                                 SHUNT L                         EST
 X-----X------------X--X-----X-----X-------X-------X-------X-------X-------X-------X-------X-------X-------X-------X-------X-------X---X

  41090 LVER-2-RS013  0 1.029 -41.0     0.0     0.0     0.0     0.0     0.0     0.0     0.0     0.0     0.0     0.0     0.0     0.0 LIG
  41091 MACA-7-RS013  0 1.008 -42.6     0.0     0.0     0.0     0.0     0.0     0.0     0.0     0.0     0.0     0.0     0.0     0.0 LIG
  41092 MACA-9-RS013  0 1.008 -42.6     0.0     0.0     0.0     0.0     0.0     0.0     0.0     0.0     0.0     0.0     0.0     0.0 LIG
  41094 MACA-1-RS013  0 1.008 -42.6     0.0     0.0     0.0     0.0     0.0     0.0     0.0     0.0     0.0     0.0     0.0     0.0 LIG
  41095 MISS-1-RS013  0 1.028 -40.6     0.0     0.0     0.0     0.0     0.0     0.0     0.0     0.0     0.0     0.0     0.0     0.0 LIG
  41096 MISS-2-RS013  0 1.028 -40.6     0.0     0.0     0.0     0.0     0.0     0.0     0.0     0.0     0.0     0.0     0.0     0.0 LIG
  41097 MISS-3-RS013  0 1.028 -40.6     0.0     0.0     0.0     0.0     0.0     0.0     0.0     0.0     0.0     0.0     0.0     0.0 LIG
  41098 NPET-1-RS013  0 1.011 -49.6     0.0     0.0     0.0     0.0     0.0     0.0     0.0     0.0     0.0     0.0     0.0     0.0 LIG
  41100 NPR2-2-RS013  0 0.998 -47.2     0.0     0.0     0.0     0.0     0.0     0.0     0.0     0.0     0.0     0.0     0.0     0.0 LIG
  41101 NPR2-7-RS013  0 0.998 -47.3     0.0     0.0     0.0     0.0     0.0     0.0     0.0     0.0     0.0     0.0     0.0     0.0 LIG
  41102 NSRA-1-RS013  0 0.997 -47.6     0.0     0.0     0.0     0.0     0.0     0.0     0.0     0.0     0.0     0.0     0.0     0.0 LIG
  41103 NSRA-2-RS013  0 0.995 -47.9     0.0     0.0     0.0     0.0     0.0     0.0     0.0     0.0     0.0     0.0     0.0     0.0 LIG
  41104 NSRA-3-RS013  0 0.993 -48.1     0.0     0.0     0.0     0.0     0.0     0.0     0.0     0.0     0.0     0.0     0.0     0.0 LIG
  41105 NSRA-4-RS013  0 0.993 -48.1     0.0     0.0     0.0     0.0     0.0     0.0     0.0     0.0     0.0     0.0     0.0     0.0 LIG
  41106 OSO2-1-RS013  0 0.995 -49.9     0.0     0.0     0.0     0.0     0.0     0.0     0.0     0.0     0.0     0.0     0.0     0.0 LIG
  41107 OSO2-2-RS013  0 0.994 -49.8     0.0     0.0     0.0     0.0     0.0     0.0     0.0     0.0     0.0     0.0     0.0     0.0 LIG
  41108 OSO2-5-RS013  0 0.995 -49.9     0.0     0.0     0.0     0.0     0.0     0.0     0.0     0.0     0.0     0.0     0.0     0.0 LIG
  41109 PA10-1-RS013  0 0.999 -51.5     0.0     0.0     0.0     0.0     0.0     0.0     0.0     0.0     0.0     0.0     0.0     0.0 LIG
  41110 PA10-2-RS013  0 0.999 -51.5     0.0     0.0     0.0     0.0     0.0     0.0     0.0     0.0     0.0     0.0     0.0     0.0 LIG
  41111 PA13-1-RS013  0 1.020 -51.7     0.0     0.0     0.0     0.0     0.0     0.0     0.0     0.0     0.0     0.0     0.0     0.0 LIG
  41112 PA10-3-RS013  0 1.027 -51.2     0.0     0.0     0.0     0.0     0.0     0.0     0.0     0.0     0.0     0.0     0.0     0.0 LIG
  41113 PA10-5-RS013  0 1.031 -50.2     0.0     0.0     0.0     0.0     0.0     0.0     0.0     0.0     0.0     0.0     0.0     0.0 LIG
  41114 PAL4-A-RS013  0 1.064 -51.5     0.0     0.0     0.0     0.0     0.0     0.0     0.0     0.0     0.0     0.0     0.0     0.0 LIG
  41115 PAL4-B-RS013  0 1.055 -53.0     0.0     0.0     0.0     0.0     0.0     0.0     0.0     0.0     0.0     0.0     0.0     0.0 LIG
  41116 PAL4-C-RS013  0 1.059 -50.9     0.0     0.0     0.0     0.0     0.0     0.0     0.0     0.0     0.0     0.0     0.0     0.0 LIG
  41117 PAL4-D-RS013  0 1.021 -52.4     0.0     0.0     0.0     0.0     0.0     0.0     0.0     0.0     0.0     0.0     0.0     0.0 LIG
  41118 PAL4-E-RS013  0 1.022 -52.5     0.0     0.0     0.0     0.0     0.0     0.0     0.0     0.0     0.0     0.0     0.0     0.0 LIG
  41119 PAL6-1-RS013  0 0.999 -51.1     0.0     0.0     0.0     0.0     0.0     0.0     0.0     0.0     0.0     0.0     0.0     0.0 LIG
  41120 PAL6-2-RS013  0 0.998 -51.1     0.0     0.0     0.0     0.0     0.0     0.0     0.0     0.0     0.0     0.0     0.0     0.0 LIG
  41121 PAL6-6-RS013  0 1.041 -51.6     0.0     0.0     0.0     0.0     0.0     0.0     0.0     0.0     0.0     0.0     0.0     0.0 LIG
  41122 PAL8-3-RS013  0 1.002 -50.8     0.0     0.0     0.0     0.0     0.0     0.0     0.0     0.0     0.0     0.0     0.0     0.0 LIG
  41123 PAL8-1-RS013  0 1.002 -50.7     0.0     0.0     0.0     0.0     0.0     0.0     0.0     0.0     0.0     0.0     0.0     0.0 LIG
  41124 PAL8-2-RS013  0 1.002 -50.7     0.0     0.0     0.0     0.0     0.0     0.0     0.0     0.0     0.0     0.0     0.0     0.0 LIG
  41125 PAL9-2-RS013  0 1.006 -51.2     0.0     0.0     0.0     0.0     0.0     0.0     0.0     0.0     0.0     0.0     0.0     0.0 LIG
  41126 PAL9-5-RS013  0 1.005 -51.3     0.0     0.0     0.0     0.0     0.0     0.0     0.0     0.0     0.0     0.0     0.0     0.0 LIG
  41127 PAL9-1-RS013  0 1.082 -51.5     0.0     0.0     0.0     0.0     0.0     0.0     0.0     0.0     0.0     0.0     0.0     0.0 LIG
  41128 PA13-2-RS013  0 1.022 -52.0     0.0     0.0     0.0     0.0     0.0     0.0     0.0     0.0     0.0     0.0     0.0     0.0 LIG
  41129 PELO-1-RS013  0 1.006 -49.1     0.0     0.0     0.0     0.0     0.0     0.0     0.0     0.0     0.0     0.0     0.0     0.0 LIG
  41130 PELO-2-RS013  0 1.006 -49.1     0.0     0.0     0.0     0.0     0.0     0.0     0.0     0.0     0.0     0.0     0.0     0.0 LIG
  41131 PELO-3-RS013  0 1.005 -49.1     0.0     0.0     0.0     0.0     0.0     0.0     0.0     0.0     0.0     0.0     0.0     0.0 LIG
  41132 PFUN-3-RS013  0 1.014 -41.5     0.0     0.0     0.0     0.0     0.0     0.0     0.0     0.0     0.0     0.0     0.0     0.0 LIG
  41133 PFUN-5-RS013  0 1.014 -41.5     0.0     0.0     0.0     0.0     0.0     0.0     0.0     0.0     0.0     0.0     0.0     0.0 LIG
  41135 PMEI-2-RS013  0 1.007 -44.6     0.0     0.0     0.0     0.0     0.0     0.0     0.0     0.0     0.0     0.0     0.0     0.0 LIG
  41136 PNOV-1-RS013  0 1.015 -47.4     0.0     0.0     0.0     0.0     0.0     0.0     0.0     0.0     0.0     0.0     0.0     0.0 LIG
  41137 PNOV-2-RS013  0 1.014 -47.3     0.0     0.0     0.0     0.0     0.0     0.0     0.0     0.0     0.0     0.0     0.0     0.0 LIG
  41138 PPET-1-RS013  0 1.039 -54.3     0.0     0.0     0.0     0.0     0.0     0.0     0.0     0.0     0.0     0.0     0.0     0.0 LIG
  41139 PPET-2-RS013  0 1.039 -54.3     0.0     0.0     0.0     0.0     0.0     0.0     0.0     0.0     0.0     0.0     0.0     0.0 LIG
  41140 PPET-3-RS013  0 1.039 -54.3     0.0     0.0     0.0     0.0     0.0     0.0     0.0     0.0     0.0     0.0     0.0     0.0 LIG
  41141 PPET-4-RS013  0 1.040 -54.3     0.0     0.0     0.0     0.0     0.0     0.0     0.0     0.0     0.0     0.0     0.0     0.0 LIG
CEPEL - CENTRO DE PESQUISAS DE ENERGIA ELETRICA - PROGRAMA DE ANALISE DE REDES - V11.07.02                                 PAG.  21

 ONS - 2Q2024 - AGOSTO - Máxima Diurna                                           
 RELATORIO DE BARRAS CA DO SISTEMA * AREA   2 * RS - 230 kV                         

 X---------------------X-----------X---------------X---------------X---------------X---------------X---------------X---------------X---X
          BARRA            TENSAO        GERACAO     INJECAO EQUIV        CARGA          ELO CC          SHUNT           MOTOR
  NUM.      NOME     TP  MOD   ANG      MW    Mvar\     MW    Mvar      MW    Mvar      MW    Mvar    Mvar   EQUIV      MW    Mvar
                                            CE Mvar                                                 SHUNT L                         EST
 X-----X------------X--X-----X-----X-------X-------X-------X-------X-------X-------X-------X-------X-------X-------X-------X-------X---X

  41142 PPET-7-RS013  0 1.014 -52.9     0.0     0.0     0.0     0.0     0.0     0.0     0.0     0.0     0.0     0.0     0.0     0.0 LIG
  41143 PPET-8-RS013  0 1.014 -52.9     0.0     0.0     0.0     0.0     0.0     0.0     0.0     0.0     0.0     0.0     0.0     0.0 LIG
  41147 QUIN-A-RS013  0 0.999 -48.3     0.0     0.0     0.0     0.0     0.0     0.0     0.0     0.0     0.0     0.0     0.0     0.0 LIG
  41148 QUIN-B-RS013  0 0.999 -48.3     0.0     0.0     0.0     0.0     0.0     0.0     0.0     0.0     0.0     0.0     0.0     0.0 LIG
  41149 QUIN-5-RS013  0 0.971 -51.4     0.0     0.0     0.0     0.0     0.0     0.0     0.0     0.0     0.0     0.0     0.0     0.0 LIG
  41150 QUIN-C-RS013  0 0.999 -48.3     0.0     0.0     0.0     0.0     0.0     0.0     0.0     0.0     0.0     0.0     0.0     0.0 LIG
  41151 QUIN-2-RS013  0 0.971 -51.2     0.0     0.0     0.0     0.0     0.0     0.0     0.0     0.0     0.0     0.0     0.0     0.0 LIG
  41153 SANG-1-RS013  0 1.005 -40.1     0.0     0.0     0.0     0.0     0.0     0.0     0.0     0.0     0.0     0.0     0.0     0.0 LIG
  41154 SANG-2-RS013  0 1.005 -40.1     0.0     0.0     0.0     0.0     0.0     0.0     0.0     0.0     0.0     0.0     0.0     0.0 LIG
  41155 SAN--1-RS013  0 1.029 -38.7     0.0     0.0     0.0     0.0     0.0     0.0     0.0     0.0     0.0     0.0     0.0     0.0 LIG
  41156 SBOR-1-RS013  0 1.010 -41.9     0.0     0.0     0.0     0.0     0.0     0.0     0.0     0.0     0.0     0.0     0.0     0.0 LIG
  41157 SBOR-6-RS013  0 1.010 -41.9     0.0     0.0     0.0     0.0     0.0     0.0     0.0     0.0     0.0     0.0     0.0     0.0 LIG
  41158 SBOR-7-RS013  0 1.009 -41.7     0.0     0.0     0.0     0.0     0.0     0.0     0.0     0.0     0.0     0.0     0.0     0.0 LIG
  41159 SC2--1-RS013  0 0.996 -51.6     0.0     0.0     0.0     0.0     0.0     0.0     0.0     0.0     0.0     0.0     0.0     0.0 LIG
  41160 SC2--2-RS013  0 0.996 -51.8     0.0     0.0     0.0     0.0     0.0     0.0     0.0     0.0     0.0     0.0     0.0     0.0 LIG
  41161 SC2--3-RS013  0 0.996 -51.6     0.0     0.0     0.0     0.0     0.0     0.0     0.0     0.0     0.0     0.0     0.0     0.0 LIG
  41162 SCHA-4-RS013  0 1.022 -50.5     0.0     0.0     0.0     0.0     0.0     0.0     0.0     0.0     0.0     0.0     0.0     0.0 LIG
  41163 SCHA-5-RS013  0 1.025 -50.4     0.0     0.0     0.0     0.0     0.0     0.0     0.0     0.0     0.0     0.0     0.0     0.0 LIG
  41164 SCRZ-1-RS013  0 1.009 -49.7     0.0     0.0     0.0     0.0     0.0     0.0     0.0     0.0     0.0     0.0     0.0     0.0 LIG
  41165 SCRZ-2-RS013  0 1.009 -49.7     0.0     0.0     0.0     0.0     0.0     0.0     0.0     0.0     0.0     0.0     0.0     0.0 LIG
...